
**** 12/31/18 23:49:09 ****** PSpice 17.2.0 (March 2016) ****** ID# 0 ********

 ** Profile: "SCHEMATIC1-123"  [ D:\ddd\gkd\2018-2019农田虫情检测项目\di_dv1.0\didv-pspicefiles\schematic1\123.sim ] 


 ****     CIRCUIT DESCRIPTION


******************************************************************************




** Creating circuit file "123.cir" 
** WARNING: THIS AUTOMATICALLY GENERATED FILE MAY BE OVERWRITTEN BY SUBSEQUENT SIMULATIONS

*Libraries: 
* Profile Libraries :
* Local Libraries :
.LIB "d:/ddd/213/opa4330_pspice_aio/opa4330.lib" 
* From [PSPICE NETLIST] section of F:\8848\Cadence\SPB_Data\cdssetup\OrCAD_PSpice\17.2.0\PSpice.ini file:
-------------------------------------------------$
ERROR(ORPSIM-16276): Can't find library
.lib "nom.lib" 

*Analysis directives: 
.TRAN  0 100m 0 
.OPTIONS ADVCONV
.PROBE64 V(alias(*)) I(alias(*)) W(alias(*)) D(alias(*)) NOISE(alias(*)) 
.INC "..\SCHEMATIC1.net" 



**** INCLUDING SCHEMATIC1.net ****
* source DIDV
X_U1         N00720 N00676 VCC VEE N00707 OPA4330
R_R1         N00724 N00720  100k  
R_R2         0 N00724  200  
R_R3         N00676 0  100k  
R_R4         N00695 N00676  230k  
R_R5         N00695 N00707  10k  
I_I1         0 N00724 DC 5m  
C_C1         N00724 0  1n  
V_V2         0 VEE 5Vdc
V_V1         VCC 0 5Vdc

**** RESUMING 123.cir ****
.END
