
**** 09/29/18 09:51:18 ****** PSpice 17.2.0 (March 2016) ****** ID# 0 ********

 ** Profile: "SCHEMATIC1-nwe"  [ d:\111\111-pspicefiles\schematic1\nwe.sim ] 


 ****     CIRCUIT DESCRIPTION


******************************************************************************




** Creating circuit file "nwe.cir" 
** WARNING: THIS AUTOMATICALLY GENERATED FILE MAY BE OVERWRITTEN BY SUBSEQUENT SIMULATIONS

*Libraries: 
* Profile Libraries :
* Local Libraries :
* From [PSPICE NETLIST] section of F:\8848\Cadence\SPB_Data\cdssetup\OrCAD_PSpice\17.2.0\PSpice.ini file:
.lib "nom.lib" 

*Analysis directives: 
.TRAN  0 2  0 
.OPTIONS ADVCONV
.PROBE64 V(alias(*)) I(alias(*)) W(alias(*)) D(alias(*)) NOISE(alias(*)) 
.INC "..\SCHEMATIC1.net" 



**** INCLUDING SCHEMATIC1.net ****
* source 111
X_U1         0 N00544 N00882 N00524 N10848 N00544 N00540 N00524 555B
V_V1         N00524 0 3Vdc
C_C9         0 N10848  0.01uF  TC=0,0 
C_C10         N00544 0  820pF  TC=0,0 
R_R6         N00540 N00524  3k TC=0,0 
R_R7         N00544 N00540  56k TC=0,0 
R_R8         N00889 N00882  6.8k TC=0,0 
X_D7         N35654 N35556 awb1n4007 PARAMS:                
X_D8         N23387 N35556 awb1n4007 PARAMS:                
X_D9         N35654 N35695 awb1n4007 PARAMS:                
X_Q2         N21334 N00889 0 awb2n5551 PARAMS:                                 
+            
C_C18         N35695 N35556  0.022uF IC=1260  
C_C19         N35654 N23387  0.022uF IC=1260  
C_C20         N35556 0  0.022uF IC=630  
Kn_K1         L_L1 L_L2     1
L_L1         N00524 N21334  1  
L_L2         N23387 0  166.67  
R_R9         0 N35695  1G  

**** RESUMING nwe.cir ****
.END

**** 09/29/18 09:51:18 ****** PSpice 17.2.0 (March 2016) ****** ID# 0 ********

 ** Profile: "SCHEMATIC1-nwe"  [ d:\111\111-pspicefiles\schematic1\nwe.sim ] 


 ****     Diode MODEL PARAMETERS


******************************************************************************




               X_D7.model22    X_D8.model22    X_D9.model22    
          IS  149.000000E-09  149.000000E-09  149.000000E-09 
           N    2.21            2.21            2.21         
          BV    1.100000E+03    1.100000E+03    1.100000E+03 
         IBV    1               1               1            
          RS     .03             .03             .03         
          TT    1.440000E-06    1.440000E-06    1.440000E-06 
         CJO   23.130000E-12   23.130000E-12   23.130000E-12 
          VJ     .5              .5              .5          
           M     .421            .421            .421        
          EG    1.11            1.11            1.11         


**** 09/29/18 09:51:18 ****** PSpice 17.2.0 (March 2016) ****** ID# 0 ********

 ** Profile: "SCHEMATIC1-nwe"  [ d:\111\111-pspicefiles\schematic1\nwe.sim ] 


 ****     BJT MODEL PARAMETERS


******************************************************************************




               X_U1.qnpn555    X_U1.qpnp555    X_Q2.model4     
               NPN             PNP             NPN             
       LEVEL    1               1               1            
          IS   14.340000E-15  650.600000E-18   44.100000E-15 
          EG                                    1.11         
          BF   65.62           70.35          180            
          NF    1               1                .995        
         VAF   74.03          115.7           100            
         IKF     .02             .02            7.140000E-03 
         ISE   19.480000E-15  180.500000E-15  252.560000E-12 
          NE    1.208           1.829           2.894        
          BR    9.715           4.146           1.844        
          NR    1               1                .995        
         VAR                                  100            
         IKR                                    7.140000E-03 
         ISC                                  252.560000E-12 
          NC                                    2.894        
         ISS    0               0               0            
          RB   10              10             700            
         RBM                                   36            
         IRB                                    3.000000E-03 
          RE    0               0                .05         
          RC    1                .715           2.3          
         CJE   40.000000E-12   40.000000E-12   18.520000E-12 
         VJE     .75             .75             .8          
         MJE     .377            .3357           .46         
         CJC   40.000000E-12   40.000000E-12    7.700000E-12 
         VJC     .75             .75             .5          
         MJC     .3416           .5383           .36         
        XCJC    1               1                .5          
         CJS    0               0               0            
         VJS     .75             .75             .7          
         MJS                                     .5          
          TF    1.000000E-09    1.000000E-09    1.590000E-09 
         XTF    3               1.7             1            
         VTF    1.7             5              20            
         ITF     .6              .65             .2          
          TR   58.980000E-09  119.900000E-09  273.000000E-09 
         XTB    1.5             1.5             1.92         
          KF    0               0               0            
          AF    1               1               1            
          CN    2.42            2.2             2.42         
           D     .87             .52             .87         


**** 09/29/18 09:51:18 ****** PSpice 17.2.0 (March 2016) ****** ID# 0 ********

 ** Profile: "SCHEMATIC1-nwe"  [ d:\111\111-pspicefiles\schematic1\nwe.sim ] 


 ****     INITIAL TRANSIENT SOLUTION       TEMPERATURE =   27.000 DEG C


******************************************************************************



 NODE   VOLTAGE     NODE   VOLTAGE     NODE   VOLTAGE     NODE   VOLTAGE


(N00524)    3.0000 (N00540)     .9877 (N00544)     .9886 (N00882)     .3869     

(N00889)     .3865 (N10848)    1.9993 (N21334)    3.0000 (N23387)    0.0000     

(N35556)  666.9700 (N35654) 1223.0000 (N35695) 1927.0000 (X_U1.9)    2.3222     

(X_U1.10)    1.2642                   (X_U1.11)    1.5856                       

(X_U1.12)     .5169                   (X_U1.13)     .5988                       

(X_U1.14)    1.1146                   (X_U1.15)     .0026                       

(X_U1.16)     .5793                   (X_U1.17)    2.3368                       

(X_U1.18)    2.8493                   (X_U1.19)    2.1339                       

(X_U1.20)    2.9625                   (X_U1.21)     .5942                       

(X_U1.22)     .5362                   (X_U1.23)    1.5094                       

(X_U1.24)    1.5153                   (X_U1.25)     .9997                       

(X_U1.26)     .6388                   (X_U1.27)     .6364                       

(X_U1.28)     .9883                   (X_U1.29)     .6373                       

(X_U1.30)    1.4995                   (X_U1.31)    1.0608                       

(X_U1.32)     .9167                   




    VOLTAGE SOURCE CURRENTS
    NAME         CURRENT

    V_V1        -1.973E-03

    TOTAL POWER DISSIPATION   5.92E-03  WATTS

Reducing minimum delta to make the circuit converge.
Reducing minimum delta to make the circuit converge.
Reducing minimum delta to make the circuit converge.
Reducing minimum delta to make the circuit converge.
Reducing minimum delta to make the circuit converge.
Reducing minimum delta to make the circuit converge.
Reducing minimum delta to make the circuit converge.

ERROR(ORPSIM-15138): Convergence problem in Transient Analysis at Time =  741.8E-06.
         Time step =  371.2E-21, minimum allowable step size =  1.000E-18

  These voltages failed to converge:

    V(N00889)                 =   -6.289MV  \   -6.549MV
    V(N00882)                 =   -2.806KV  \   -2.817KV
    V(N21334)                 =   -6.956MV  \   -8.393MV
    V(X_U1.11)                =   -724.55V  \   -729.38V
    V(X_U1.26)                =   -1.022KV  \   -1.026KV
    V(X_U1.28)                =   -1.193KV  \   -1.194KV

  These supply currents failed to converge:

    I(L_L1)                   =  -274.40KA  \  -786.56KA
    I(L_L2)                   =    3.136KA  \    42.81KA
    I(V_V1)                   =   273.83KA  \   785.98KA

  These devices failed to converge:
    X_U1.q_q4 X_U1.q_q3 X_U1.q_q5d X_U1.q_q6d X_U1.q_q6 X_U1.q_q9 X_U1.q_q10 
    X_U1.q_q8 X_U1.q_q7 X_U1.q_q13 X_U1.q_q15 X_U1.q_q14 



  Last node voltages tried were:

 NODE   VOLTAGE     NODE   VOLTAGE     NODE   VOLTAGE     NODE   VOLTAGE


(N00524)    3.0000 (N00540)    3.0036 (N00544)    2.8590 (N00882)-2806.4000     

(N00889)-6.289E+06 (N10848)    2.0006 (N21334)-6.956E+06 (N23387) 91.77E+06     

(N35556) 91.77E+06 (N35654) 91.77E+06 (N35695) 91.77E+06 (X_U1.9)    2.0094     

(X_U1.10) -949.9700                   (X_U1.11) -724.5500                       

(X_U1.12) -943.8500                   (X_U1.13) -942.8500                       

(X_U1.14) -942.8600                   (X_U1.15) -942.1700                       

(X_U1.16) -941.6000                   (X_U1.17)    2.5426                       

(X_U1.18)    2.3205                   (X_U1.19) -113.8000                       

(X_U1.20)    2.6872                   (X_U1.21) -942.1100                       

(X_U1.22) -941.4500                   (X_U1.23) -114.4300                       

(X_U1.24) -114.4300                   (X_U1.25)     .9976                       

(X_U1.26)-1021.8000                   (X_U1.27)-1025.8000                       

(X_U1.28)-1192.7000                   (X_U1.29)-2358.0000                       

(X_U1.30)    1.8611                   (X_U1.31)    2.3126                       

(X_U1.32)    1.7132                   


**** Interrupt ****
