
**** 10/15/18 15:36:14 ****** PSpice 17.2.0 (March 2016) ****** ID# 0 ********

 ** Profile: "SCHEMATIC1-bias"  [ C:\Users\wxy\Desktop\项目汇总\项目汇总\微小电流电路图\test-pspicefiles\schematic1\bias.sim ] 


 ****     CIRCUIT DESCRIPTION


******************************************************************************




** Creating circuit file "bias.cir" 
** WARNING: THIS AUTOMATICALLY GENERATED FILE MAY BE OVERWRITTEN BY SUBSEQUENT SIMULATIONS

*Libraries: 
* Profile Libraries :
* Local Libraries :
* From [PSPICE NETLIST] section of F:\8848\Cadence\SPB_Data\cdssetup\OrCAD_PSpice\17.2.0\PSpice.ini file:
.lib "nom.lib" 

*Analysis directives: 
.TRAN  0 100m 0 
.OPTIONS ADVCONV
.PROBE64 V(alias(*)) I(alias(*)) W(alias(*)) D(alias(*)) NOISE(alias(*)) 
.INC "..\SCHEMATIC1.net" 



**** INCLUDING SCHEMATIC1.net ****
* source TEST
R_R1         N15714 N20660  10k TC=0,0 
R_R2         0 N20638  9.804k TC=0,0 
R_R3         N20993 N15042  1k TC=0,0 
C_C1         0 N15042  1n  TC=0,0 
C_C2         +5V N15252  0.1F  TC=0,0 
C_C3         0 -5V  0.1F  TC=0,0 
C_C4         +5V N20762  0.1F  TC=0,0 
C_C5         0 +5V  0.1F  TC=0,0 
R_R4         N20660 N20993  500k TC=0,0 
V_V12         N15714 0 10V

**** RESUMING bias.cir ****
.END

ERROR(ORPSIM-15141): Less than 2 connections at node N20638.

ERROR(ORPSIM-15141): Less than 2 connections at node N15252.

ERROR(ORPSIM-15141): Less than 2 connections at node -5V.

ERROR(ORPSIM-15141): Less than 2 connections at node N20762.

ERROR(ORPSIM-15142): Node +5V is floating

ERROR(ORPSIM-15142): Node N15252 is floating

ERROR(ORPSIM-15142): Node -5V is floating

ERROR(ORPSIM-15142): Node N20762 is floating
